Version 4
SHEET 1 880 740
WIRE 144 80 -48 80
WIRE 352 80 144 80
WIRE 528 80 352 80
WIRE 144 112 144 80
WIRE 352 112 352 80
WIRE 528 112 528 80
WIRE -48 176 -48 80
WIRE 528 256 528 192
WIRE 352 304 352 192
WIRE 464 304 352 304
WIRE 144 320 144 192
WIRE 352 336 352 304
WIRE 96 384 16 384
WIRE 288 384 192 384
WIRE 528 400 528 352
WIRE 528 496 528 464
WIRE 640 496 528 496
WIRE 528 512 528 496
WIRE 352 560 352 432
WIRE 464 560 352 560
WIRE 352 592 352 560
WIRE -48 704 -48 256
WIRE 176 704 -48 704
WIRE 352 704 352 672
WIRE 352 704 176 704
WIRE 528 704 528 608
WIRE 528 704 352 704
WIRE 176 720 176 704
FLAG 16 384 W1
FLAG 640 496 Vout
FLAG 176 720 0
SYMBOL res 128 96 R0
SYMATTR InstName R1
SYMATTR Value 100k
SYMBOL res 336 96 R0
SYMATTR InstName R2
SYMATTR Value 2.2k
SYMBOL res 512 96 R0
SYMATTR InstName R3
SYMATTR Value 100
SYMBOL npn 192 320 R90
SYMATTR InstName Q1
SYMBOL npn 288 336 R0
SYMATTR InstName Q2
SYMBOL npn 464 256 R0
SYMATTR InstName Q3
SYMBOL npn 464 512 R0
SYMATTR InstName Q4
SYMBOL diode 512 400 R0
SYMATTR InstName D1
SYMBOL res 336 576 R0
SYMATTR InstName R4
SYMATTR Value 470
SYMBOL voltage -48 160 R0
WINDOW 3 26 88 Left 2
WINDOW 123 0 0 Left 0
WINDOW 39 0 0 Left 0
SYMATTR InstName VCC
SYMATTR Value Vp
TEXT 80 16 Left 4 ;NOT Gate using TTL
