Version 4
SHEET 1 880 680
TEXT 120 72 Left 4 ;Vedant Kelkar
TEXT 64 112 Left 2 ;1912052                               AC Lab10
TEXT 184 160 Left 2 !VBB 1 0 DC\nVCC 4 0 10V\nRB 1 2 100k\nRC 3 4 1k\nQ1 3 2 0 npn1\n.model npn1 npn(bf=100)\n.dc  VBB 0 2 0.1
