Version 4
SHEET 1 880 680
WIRE -128 96 -128 48
WIRE 0 0 0 0
SYMBOL res -144 80 R0
SYMATTR InstName R1
SYMBOL res 0 32 R0
SYMATTR InstName R2
