Version 4
SHEET 1 880 680
TEXT 360 136 Left 2 !Vs 1 0 dc\nR1 2 0 1k\nD1 1 2 EDZV6_2B\n.model EDZV6_2B D\n.dc Vs -10 2 0.1
TEXT 336 56 Left 2 ;Vedant Kelkar
TEXT 304 88 Left 2 ;Netlist
TEXT 440 88 Left 1 ;1912052
